CN15_EXP_VOLTAGES.CSV
Bus, BasekV, Node1, Magnitude1, Angle1, pu1, Node2, Magnitude2, Angle2, pu2, Node3, Magnitude3, Angle3, pu3
"SCN_CN15_9153_CEI109", 13.8, 1,    7818.36,   -0.8,   0.98129, 2,    7818.36, -120.8,   0.98129, 3,    7818.36,  119.2,   0.98129
"SCN_CN15_9154_CEI109", 13.8, 1,    7816.46,   -0.8,   0.98105, 2,    7816.46, -120.8,   0.98105, 3,    7816.46,  119.2,   0.98105
"SCN_CN15_9098_CEI131_ATV", 13.8, 1,    7764.63,   -0.7,   0.97455, 2,    7764.63, -120.7,   0.97455, 3,    7764.63,  119.3,   0.97455
"SCN_CN15_9097_CEI131_ATV", 13.8, 1,    7764.63,   -0.7,   0.97455, 2,    7764.63, -120.7,   0.97455, 3,    7764.63,  119.3,   0.97455
"SCN_CN15_9079_CEI201_ATV", 13.8, 1,    7747.21,   -0.7,   0.97236, 2,    7747.21, -120.7,   0.97236, 3,    7747.21,  119.3,   0.97236
"SCN_CN15_9080_CEI201_ATV", 13.8, 1,    7747.21,   -0.7,   0.97236, 2,    7747.21, -120.7,   0.97236, 3,    7747.21,  119.3,   0.97236
"SCN_CN15_9356_CEI109", 13.8, 1,    7757.44,   -0.7,   0.97364, 2,    7757.44, -120.7,   0.97364, 3,    7757.44,  119.3,   0.97364
"SCN_CN15_9349_CEI109", 13.8, 1,    7757.53,   -0.7,   0.97365, 2,    7757.53, -120.7,   0.97365, 3,    7757.53,  119.3,   0.97365
"SCN_CN15_9039_CEI201_ATV", 13.8, 1,    7757.62,   -0.7,   0.97367, 2,    7757.62, -120.7,   0.97367, 3,    7757.62,  119.3,   0.97367
"SCN_CN15_9021_CEI201_ATV", 13.8, 1,    7756.55,   -0.7,   0.97353, 2,    7756.55, -120.7,   0.97353, 3,    7756.55,  119.3,   0.97353
"SCN_CN15_9022_CEI201_ATV", 13.8, 1,     7756.6,   -0.7,   0.97354, 2,     7756.6, -120.7,   0.97354, 3,     7756.6,  119.3,   0.97354
"SCN_CN15_9274_CEI109", 13.8, 1,    7764.59,   -0.7,   0.97454, 2,    7764.59, -120.7,   0.97454, 3,    7764.59,  119.3,   0.97454
"SCN_CN15_9275_CEI109", 13.8, 1,    7764.97,   -0.7,   0.97459, 2,    7764.97, -120.7,   0.97459, 3,    7764.97,  119.3,   0.97459
"SCN_CN15_9269_CEI109", 13.8, 1,     7764.2,   -0.7,   0.97449, 2,     7764.2, -120.7,   0.97449, 3,     7764.2,  119.3,   0.97449
"SCN_CN15_9053_CEI201_ATV", 13.8, 1,    7758.17,   -0.7,   0.97374, 2,    7758.17, -120.7,   0.97374, 3,    7758.17,  119.3,   0.97374
"SCN_CN15_9485_CEI109", 13.8, 1,    7758.17,   -0.7,   0.97374, 2,    7758.17, -120.7,   0.97374, 3,    7758.17,  119.3,   0.97374
"SCN_CN15_421165_CEI", 13.8, 1,    7743.33,   -0.7,   0.97187, 2,    7743.33, -120.7,   0.97187, 3,    7743.33,  119.3,   0.97187
"SCN_CN15_421166_CEI", 13.8, 1,     7743.1,   -0.7,   0.97184, 2,     7743.1, -120.7,   0.97184, 3,     7743.1,  119.3,   0.97184
"SCN_CN15_9143_CEI69B", 13.8, 1,    7742.87,   -0.7,   0.97181, 2,    7742.87, -120.7,   0.97181, 3,    7742.87,  119.3,   0.97181
"SCN_CN15_9141_CEI201_ATV", 13.8, 1,    7743.33,   -0.7,   0.97187, 2,    7743.33, -120.7,   0.97187, 3,    7743.33,  119.3,   0.97187
"SCN_CN15_9129_CEI201_ATV", 13.8, 1,    7741.83,   -0.7,   0.97168, 2,    7741.83, -120.7,   0.97168, 3,    7741.83,  119.3,   0.97168
"SCN_CN15_9008_CEI220_ATV", 13.8, 1,    7741.83,   -0.7,   0.97168, 2,    7741.83, -120.7,   0.97168, 3,    7741.83,  119.3,   0.97168
"SCN_CN15_421168_CEI", 13.8, 1,    7760.49,   -0.7,   0.97403, 2,    7760.49, -120.7,   0.97403, 3,    7760.49,  119.3,   0.97403
"SCN_CN15_9015_CEI109", 13.8, 1,    7760.49,   -0.7,   0.97403, 2,    7760.49, -120.7,   0.97403, 3,    7760.49,  119.3,   0.97403
"SCN_CN15_421185_CEI", 13.8, 1,    7756.21,   -0.7,   0.97349, 2,    7756.21, -120.7,   0.97349, 3,    7756.21,  119.3,   0.97349
"SCN_CN15_9162_CEI220_ATV_S", 13.8, 1,    7756.54,   -0.7,   0.97353, 2,    7756.54, -120.7,   0.97353, 3,    7756.54,  119.3,   0.97353
"SCN_CN15_421186_CEI", 13.8, 1,    7755.89,   -0.7,   0.97345, 2,    7755.89, -120.7,   0.97345, 3,    7755.89,  119.3,   0.97345
"SCN_CN15_421187_CEI", 13.8, 1,    7755.56,   -0.7,   0.97341, 2,    7755.56, -120.7,   0.97341, 3,    7755.56,  119.3,   0.97341
"SCN_CN15_421169_CEI", 13.8, 1,    7755.24,   -0.7,   0.97337, 2,    7755.24, -120.7,   0.97337, 3,    7755.24,  119.3,   0.97337
"SCN_CN15_9012_CEI120", 13.8, 1,    7755.83,   -0.7,   0.97344, 2,    7755.83, -120.7,   0.97344, 3,    7755.83,  119.3,   0.97344
"SCN_CN15_421170_CEI", 13.8, 1,    7754.32,   -0.7,   0.97325, 2,    7754.32, -120.7,   0.97325, 3,    7754.32,  119.3,   0.97325
"SCN_CN15_421171_CEI", 13.8, 1,    7754.32,   -0.7,   0.97325, 2,    7754.32, -120.7,   0.97325, 3,    7754.32,  119.3,   0.97325
"SCN_CN15_421172_CEI", 13.8, 1,    7754.32,   -0.7,   0.97325, 2,    7754.32, -120.7,   0.97325, 3,    7754.32,  119.3,   0.97325
"SCN_CN15_421173_CEI", 13.8, 1,    7754.32,   -0.7,   0.97325, 2,    7754.32, -120.7,   0.97325, 3,    7754.32,  119.3,   0.97325
"SCN_CN15_421174_CEI", 13.8, 1,    7754.32,   -0.7,   0.97325, 2,    7754.32, -120.7,   0.97325, 3,    7754.32,  119.3,   0.97325
"SCN_CN15_421175_CEI", 13.8, 1,     7753.4,   -0.7,   0.97314, 2,     7753.4, -120.7,   0.97314, 3,     7753.4,  119.3,   0.97314
"SCN_CN15_421176_CEI", 13.8, 1,     7753.4,   -0.7,   0.97314, 2,     7753.4, -120.7,   0.97314, 3,     7753.4,  119.3,   0.97314
"SCN_CN15_421177_CEI", 13.8, 1,     7753.4,   -0.7,   0.97314, 2,     7753.4, -120.7,   0.97314, 3,     7753.4,  119.3,   0.97314
"SCN_CN15_421178_CEI", 13.8, 1,     7753.4,   -0.7,   0.97314, 2,     7753.4, -120.7,   0.97314, 3,     7753.4,  119.3,   0.97314
"SCN_CN15_421179_CEI", 13.8, 1,    7752.49,   -0.7,   0.97302, 2,    7752.49, -120.7,   0.97302, 3,    7752.49,  119.3,   0.97302
"SCN_CN15_9047_CEI130_ATV", 13.8, 1,    7751.57,   -0.7,   0.97291, 2,    7751.57, -120.7,   0.97291, 3,    7751.57,  119.3,   0.97291
"SCN_CN15_421180_CEI", 13.8, 1,    7751.57,   -0.7,   0.97291, 2,    7751.57, -120.7,   0.97291, 3,    7751.57,  119.3,   0.97291
"SCN_CN15_9037_CEI130_ATV", 13.8, 1,    7750.66,   -0.7,   0.97279, 2,    7750.66, -120.7,   0.97279, 3,    7750.66,  119.3,   0.97279
"SCN_CN15_9047_CEI130_ATV_S", 13.8, 1,    7751.57,   -0.7,   0.97291, 2,    7751.57, -120.7,   0.97291, 3,    7751.57,  119.3,   0.97291
"SCN_CN15_421181_CEI", 13.8, 1,    7749.75,   -0.7,   0.97268, 2,    7749.75, -120.7,   0.97268, 3,    7749.75,  119.3,   0.97268
"SCN_CN15_9040_CEI130_ATV", 13.8, 1,    7749.75,   -0.7,   0.97268, 2,    7749.75, -120.7,   0.97268, 3,    7749.75,  119.3,   0.97268
"SCN_CN15_421182_CEI", 13.8, 1,    7749.75,   -0.7,   0.97268, 2,    7749.75, -120.7,   0.97268, 3,    7749.75,  119.3,   0.97268
"SCN_CN15_421183_CEI", 13.8, 1,    7749.75,   -0.7,   0.97268, 2,    7749.75, -120.7,   0.97268, 3,    7749.75,  119.3,   0.97268
"SCN_CN15_421184_CEI", 13.8, 1,    7749.75,   -0.7,   0.97268, 2,    7749.75, -120.7,   0.97268, 3,    7749.75,  119.3,   0.97268
"SCN_CN15_421195_CEI", 13.8, 1,    7746.41,   -0.7,   0.97226, 2,    7746.41, -120.7,   0.97226, 3,    7746.41,  119.3,   0.97226
"SCN_CN15_9022_CEI250_ATV", 13.8, 1,    7746.72,   -0.7,    0.9723, 2,    7746.72, -120.7,    0.9723, 3,    7746.72,  119.3,    0.9723
"SCN_CN15_421196_CEI", 13.8, 1,     7746.1,   -0.7,   0.97222, 2,     7746.1, -120.7,   0.97222, 3,     7746.1,  119.3,   0.97222
"SCN_CN15_9025_CEI130_ATV", 13.8, 1,    7745.79,   -0.7,   0.97218, 2,    7745.79, -120.7,   0.97218, 3,    7745.79,  119.3,   0.97218
"SCN_CN15_421197_CEI", 13.8, 1,    7751.55,   -0.7,    0.9729, 2,    7751.55, -120.7,    0.9729, 3,    7751.55,  119.3,    0.9729
"SCN_CN15_9004_CEI160_ATV", 13.8, 1,    7751.55,   -0.7,    0.9729, 2,    7751.55, -120.7,    0.9729, 3,    7751.55,  119.3,    0.9729
"SCN_CN15_9005_CEI160_ATV", 13.8, 1,    7751.55,   -0.7,    0.9729, 2,    7751.55, -120.7,    0.9729, 3,    7751.55,  119.3,    0.9729
"SCN_CN15_9017_CEI130A_ATV", 13.8, 1,    7732.67,   -0.7,   0.97054, 2,    7732.67, -120.7,   0.97054, 3,    7732.67,  119.3,   0.97054
"SCN_CN15_421206_CEI", 13.8, 1,    7732.67,   -0.7,   0.97054, 2,    7732.67, -120.7,   0.97054, 3,    7732.67,  119.3,   0.97054
"SCN_CN15_9034_CEI130A_ATV", 13.8, 1,    7732.58,   -0.7,   0.97052, 2,    7732.58, -120.7,   0.97052, 3,    7732.58,  119.3,   0.97052
"SCN_CN15_421207_CEI", 13.8, 1,    7732.58,   -0.7,   0.97052, 2,    7732.58, -120.7,   0.97052, 3,    7732.58,  119.3,   0.97052
"SCN_CN15_421208_CEI", 13.8, 1,    7732.58,   -0.7,   0.97052, 2,    7732.58, -120.7,   0.97052, 3,    7732.58,  119.3,   0.97052
"SCN_CN15_421209_CEI", 13.8, 1,    7732.58,   -0.7,   0.97052, 2,    7732.58, -120.7,   0.97052, 3,    7732.58,  119.3,   0.97052
"SCN_CN15_421210_CEI", 13.8, 1,    7732.58,   -0.7,   0.97052, 2,    7732.58, -120.7,   0.97052, 3,    7732.58,  119.3,   0.97052
"SCN_CN15_421211_CEI", 13.8, 1,    7732.58,   -0.7,   0.97052, 2,    7732.58, -120.7,   0.97052, 3,    7732.58,  119.3,   0.97052
"SCN_CN15_421212_CEI", 13.8, 1,    7732.58,   -0.7,   0.97052, 2,    7732.58, -120.7,   0.97052, 3,    7732.58,  119.3,   0.97052
"SCN_CN15_9040_CEI130A_ATV", 13.8, 1,    7732.57,   -0.7,   0.97052, 2,    7732.57, -120.7,   0.97052, 3,    7732.57,  119.3,   0.97052
"SCN_CN15_421213_CEI", 13.8, 1,    7732.57,   -0.7,   0.97052, 2,    7732.57, -120.7,   0.97052, 3,    7732.57,  119.3,   0.97052
"SCN_CN15_421218_CEI", 13.8, 1,    7729.62,   -0.7,   0.97015, 2,    7729.62, -120.7,   0.97015, 3,    7729.62,  119.3,   0.97015
"SCN_CN15_9353_CEI065", 13.8, 1,    7729.62,   -0.7,   0.97015, 2,    7729.62, -120.7,   0.97015, 3,    7729.62,  119.3,   0.97015
"SCN_CN15_421219_CEI", 13.8, 1,    7729.62,   -0.7,   0.97015, 2,    7729.62, -120.7,   0.97015, 3,    7729.62,  119.3,   0.97015
"CN_ALCN15", 13.8, 1,    7729.62,   -0.7,   0.97015, 2,    7729.62, -120.7,   0.97015, 3,    7729.62,  119.3,   0.97015
"SCN_CN15_421227_CEI", 13.8, 1,    7731.35,   -0.7,   0.97037, 2,    7731.35, -120.7,   0.97037, 3,    7731.35,  119.3,   0.97037
"SCN_CN15_9006_CEIRJ013_ATV", 13.8, 1,    7731.35,   -0.7,   0.97037, 2,    7731.35, -120.7,   0.97037, 3,    7731.35,  119.3,   0.97037
"SCN_CN15_9067_CEIRJ006_ATV", 13.8, 1,    7731.99,   -0.7,   0.97045, 2,    7731.99, -120.7,   0.97045, 3,    7731.99,  119.3,   0.97045
"SCN_CN15_9064_CEIRJ006_ATV", 13.8, 1,    7731.99,   -0.7,   0.97045, 2,    7731.99, -120.7,   0.97045, 3,    7731.99,  119.3,   0.97045
"SCN_CN15_421241_CEI", 13.8, 1,    7731.99,   -0.7,   0.97045, 2,    7731.99, -120.7,   0.97045, 3,    7731.99,  119.3,   0.97045
"SCN_CN15_9068_CEIRJ006_ATV", 13.8, 1,    7731.99,   -0.7,   0.97045, 2,    7731.99, -120.7,   0.97045, 3,    7731.99,  119.3,   0.97045
"SCN_CN15_9050_CEI160_ATV", 13.8, 1,    7703.03,   -0.6,   0.96681, 2,    7703.03, -120.6,   0.96681, 3,    7703.03,  119.4,   0.96681
"SCN_CN15_9014_CEI077_ATV", 13.8, 1,    7703.05,   -0.6,   0.96682, 2,    7703.05, -120.6,   0.96682, 3,    7703.05,  119.4,   0.96682
"SCN_CN15_9052_CEI160_ATV", 13.8, 1,    7703.03,   -0.6,   0.96681, 2,    7703.03, -120.6,   0.96681, 3,    7703.03,  119.4,   0.96681
"SCN_CN15_421244_CEI", 13.8, 1,    7703.02,   -0.6,   0.96681, 2,    7703.02, -120.6,   0.96681, 3,    7703.02,  119.4,   0.96681
"SCN_CN15_421245_CEI", 13.8, 1,       7703,   -0.6,   0.96681, 2,       7703, -120.6,   0.96681, 3,       7703,  119.4,   0.96681
"SCN_CN15_9005_CEIRJ012_ATV_S", 13.8, 1,    7702.99,   -0.6,   0.96681, 2,    7702.99, -120.6,   0.96681, 3,    7702.99,  119.4,   0.96681
"SCN_CN15_9024_CEI167_ATV", 13.8, 1,    7699.36,   -0.6,   0.96635, 2,    7699.36, -120.6,   0.96635, 3,    7699.36,  119.4,   0.96635
"SCN_CN15_9025_CEI167_ATV", 13.8, 1,    7699.36,   -0.6,   0.96635, 2,    7699.36, -120.6,   0.96635, 3,    7699.36,  119.4,   0.96635
"SCN_CN15_9002_CEIRJ013_ATV", 13.8, 1,    7699.36,   -0.6,   0.96635, 2,    7699.36, -120.6,   0.96635, 3,    7699.36,  119.4,   0.96635
"SCN_CN15_9037_CEI77A_ATV", 13.8, 1,     7699.4,   -0.6,   0.96636, 2,     7699.4, -120.6,   0.96636, 3,     7699.4,  119.4,   0.96636
"SCN_CN15_9035_CEIRJ006_ATV", 13.8, 1,     7699.4,   -0.6,   0.96636, 2,     7699.4, -120.6,   0.96636, 3,     7699.4,  119.4,   0.96636
"SCN_CN15_9036_CEIRJ006_ATV", 13.8, 1,     7699.4,   -0.6,   0.96636, 2,     7699.4, -120.6,   0.96636, 3,     7699.4,  119.4,   0.96636
"SCN_CN15_9105_CEI201_ATV", 13.8, 1,    7747.15,   -0.7,   0.97235, 2,    7747.15, -120.7,   0.97235, 3,    7747.15,  119.3,   0.97235
"SCN_CN15_9102_CEI201_ATV_S", 13.8, 1,    7747.14,   -0.7,   0.97235, 2,    7747.14, -120.7,   0.97235, 3,    7747.14,  119.3,   0.97235
"SCN_CN15_9017_CEI201_ATV", 13.8, 1,    7756.45,   -0.7,   0.97352, 2,    7756.45, -120.7,   0.97352, 3,    7756.45,  119.3,   0.97352
"SCN_CN15_9019_CEI201_ATV", 13.8, 1,    7756.49,   -0.7,   0.97352, 2,    7756.49, -120.7,   0.97352, 3,    7756.49,  119.3,   0.97352
"SCN_CN15_9019_CEI134C_ATV", 13.8, 1,     7766.9,   -0.7,   0.97483, 2,     7766.9, -120.7,   0.97483, 3,     7766.9,  119.3,   0.97483
"SCN_CN15_9020_CEI134C_ATV", 13.8, 1,    7766.89,   -0.7,   0.97483, 2,    7766.89, -120.7,   0.97483, 3,    7766.89,  119.3,   0.97483
"SCN_CN15_9022_CEI134C_ATV", 13.8, 1,    7766.89,   -0.7,   0.97483, 2,    7766.89, -120.7,   0.97483, 3,    7766.89,  119.3,   0.97483
"SCN_CN15_9021_CEI134C_ATV", 13.8, 1,    7766.88,   -0.7,   0.97483, 2,    7766.88, -120.7,   0.97483, 3,    7766.88,  119.3,   0.97483
"SCN_CN15_9023_CEI134C_ATV", 13.8, 1,    7766.87,   -0.7,   0.97483, 2,    7766.87, -120.7,   0.97483, 3,    7766.87,  119.3,   0.97483
"SCN_CN15_9034_CEI134C_ATV", 13.8, 1,    7766.86,   -0.7,   0.97483, 2,    7766.86, -120.7,   0.97483, 3,    7766.86,  119.3,   0.97483
"SCN_CN15_9035_CEI134C_ATV", 13.8, 1,    7766.86,   -0.7,   0.97483, 2,    7766.86, -120.7,   0.97483, 3,    7766.86,  119.3,   0.97483
"SCN_CN15_9036_CEI134C_ATV", 13.8, 1,    7766.85,   -0.7,   0.97482, 2,    7766.85, -120.7,   0.97482, 3,    7766.85,  119.3,   0.97482
"SCN_CN15_9024_CEI134B_ATV", 13.8, 1,    7767.15,   -0.7,   0.97486, 2,    7767.15, -120.7,   0.97486, 3,    7767.15,  119.3,   0.97486
"SCN_CN15_9027_CEI134B_ATV", 13.8, 1,    7767.15,   -0.7,   0.97486, 2,    7767.15, -120.7,   0.97486, 3,    7767.15,  119.3,   0.97486
"SCN_CN15_9026_CEI134B_ATV", 13.8, 1,    7767.15,   -0.7,   0.97486, 2,    7767.15, -120.7,   0.97486, 3,    7767.15,  119.3,   0.97486
"SCN_CN15_9028_CEI134B_ATV", 13.8, 1,    7767.15,   -0.7,   0.97486, 2,    7767.15, -120.7,   0.97486, 3,    7767.15,  119.3,   0.97486
"SCN_CN15_9011_CEI134_ATV", 13.8, 1,    7768.44,   -0.7,   0.97502, 2,    7768.44, -120.7,   0.97502, 3,    7768.44,  119.3,   0.97502
"SCN_CN15_9009_CEI134A_ATV", 13.8, 1,    7768.38,   -0.7,   0.97502, 2,    7768.38, -120.7,   0.97502, 3,    7768.38,  119.3,   0.97502
"SCN_CN15_9002_CEI134_ATV", 13.8, 1,    7768.65,   -0.7,   0.97505, 2,    7768.65, -120.7,   0.97505, 3,    7768.65,  119.3,   0.97505
"SCN_CN15_9003_CEI134_ATV", 13.8, 1,    7768.66,   -0.7,   0.97505, 2,    7768.66, -120.7,   0.97505, 3,    7768.66,  119.3,   0.97505
"SCN_CN15_9101_CEI109", 13.8, 1,    7781.28,   -0.7,   0.97664, 2,    7781.28, -120.7,   0.97664, 3,    7781.28,  119.3,   0.97664
"SCN_CN15_9102_CEI109", 13.8, 1,    7781.27,   -0.7,   0.97663, 2,    7781.27, -120.7,   0.97663, 3,    7781.27,  119.3,   0.97663
"SCN_CN15_9103_CEI109", 13.8, 1,    7781.26,   -0.7,   0.97663, 2,    7781.26, -120.7,   0.97663, 3,    7781.26,  119.3,   0.97663
"SCN_CN15_9104_CEI109", 13.8, 1,    7781.26,   -0.7,   0.97663, 2,    7781.26, -120.7,   0.97663, 3,    7781.26,  119.3,   0.97663
"SCN_CN15_9105_CEI109", 13.8, 1,    7781.25,   -0.7,   0.97663, 2,    7781.25, -120.7,   0.97663, 3,    7781.25,  119.3,   0.97663
"SCN_CN15_9106_CEI109", 13.8, 1,    7781.24,   -0.7,   0.97663, 2,    7781.24, -120.7,   0.97663, 3,    7781.24,  119.3,   0.97663
"SCN_CN15_9108_CEI109", 13.8, 1,    7781.24,   -0.7,   0.97663, 2,    7781.24, -120.7,   0.97663, 3,    7781.24,  119.3,   0.97663
"SCN_CN15_9109_CEI109", 13.8, 1,    7781.23,   -0.7,   0.97663, 2,    7781.23, -120.7,   0.97663, 3,    7781.23,  119.3,   0.97663
"SCN_CN15_9110_CEI109", 13.8, 1,    7781.22,   -0.7,   0.97663, 2,    7781.22, -120.7,   0.97663, 3,    7781.22,  119.3,   0.97663
"SCN_CN15_9111_CEI109", 13.8, 1,    7781.22,   -0.7,   0.97663, 2,    7781.22, -120.7,   0.97663, 3,    7781.22,  119.3,   0.97663
"SCN_CN15_9112_CEI109", 13.8, 1,    7781.21,   -0.7,   0.97663, 2,    7781.21, -120.7,   0.97663, 3,    7781.21,  119.3,   0.97663
"SCN_CN15_9113_CEI109", 13.8, 1,     7781.2,   -0.7,   0.97663, 2,     7781.2, -120.7,   0.97663, 3,     7781.2,  119.3,   0.97663
"SCN_CN15_9114_CEI109", 13.8, 1,     7781.2,   -0.7,   0.97663, 2,     7781.2, -120.7,   0.97663, 3,     7781.2,  119.3,   0.97663
"SCN_CN15_9115_CEI109", 13.8, 1,    7781.19,   -0.7,   0.97662, 2,    7781.19, -120.7,   0.97662, 3,    7781.19,  119.3,   0.97662
"SCN_CN15_9116_CEI109", 13.8, 1,    7781.18,   -0.7,   0.97662, 2,    7781.18, -120.7,   0.97662, 3,    7781.18,  119.3,   0.97662
"SCN_CN15_9010_CEI120", 13.8, 1,    7757.01,   -0.7,   0.97359, 2,    7757.01, -120.7,   0.97359, 3,    7757.01,  119.3,   0.97359
"SCN_CN15_9011_CEI120", 13.8, 1,    7756.42,   -0.7,   0.97351, 2,    7756.42, -120.7,   0.97351, 3,    7756.42,  119.3,   0.97351
"SCN_CN15_9045_CEI130_ATV", 13.8, 1,    7751.56,   -0.7,   0.97291, 2,    7751.56, -120.7,   0.97291, 3,    7751.56,  119.3,   0.97291
"SCN_CN15_9044_CEI130_ATV", 13.8, 1,    7751.55,   -0.7,    0.9729, 2,    7751.55, -120.7,    0.9729, 3,    7751.55,  119.3,    0.9729
"SCN_CN15_9043_CEI130_ATV", 13.8, 1,    7751.55,   -0.7,    0.9729, 2,    7751.55, -120.7,    0.9729, 3,    7751.55,  119.3,    0.9729
"SCN_CN15_9014_CEI69B", 13.8, 1,    7743.37,   -0.7,   0.97188, 2,    7743.37, -120.7,   0.97188, 3,    7743.37,  119.3,   0.97188
"SCN_CN15_9015_CEI69B", 13.8, 1,    7743.07,   -0.7,   0.97184, 2,    7743.07, -120.7,   0.97184, 3,    7743.07,  119.3,   0.97184
"SCN_CN15_9559_CEI109", 13.8, 1,    7762.71,   -0.7,   0.97431, 2,    7762.71, -120.7,   0.97431, 3,    7762.71,  119.3,   0.97431
"SCN_CN15_9570_CEI109", 13.8, 1,    7762.71,   -0.7,    0.9743, 2,    7762.71, -120.7,    0.9743, 3,    7762.71,  119.3,    0.9743
"SCN_CN15_9558_CEI109", 13.8, 1,    7762.34,   -0.7,   0.97426, 2,    7762.34, -120.7,   0.97426, 3,    7762.34,  119.3,   0.97426
"SCN_CN15_9560_CEI109", 13.8, 1,    7763.08,   -0.7,   0.97435, 2,    7763.08, -120.7,   0.97435, 3,    7763.08,  119.3,   0.97435
"SCN_CN15_9555_CEI109", 13.8, 1,    7761.97,   -0.7,   0.97421, 2,    7761.97, -120.7,   0.97421, 3,    7761.97,  119.3,   0.97421
"SCN_CN15_9552_CEI109", 13.8, 1,     7761.6,   -0.7,   0.97417, 2,     7761.6, -120.7,   0.97417, 3,     7761.6,  119.3,   0.97417
"SCN_CN15_9550_CEI109", 13.8, 1,    7761.23,   -0.7,   0.97412, 2,    7761.23, -120.7,   0.97412, 3,    7761.23,  119.3,   0.97412
"SCN_CN15_9548_CEI109", 13.8, 1,    7760.87,   -0.7,   0.97407, 2,    7760.87, -120.7,   0.97407, 3,    7760.87,  119.3,   0.97407
"SCN_CN15_9017_CEI109", 13.8, 1,    7760.51,   -0.7,   0.97403, 2,    7760.51, -120.7,   0.97403, 3,    7760.51,  119.3,   0.97403
"SCN_CN15_9548_CEI109_S", 13.8, 1,    7760.87,   -0.7,   0.97407, 2,    7760.87, -120.7,   0.97407, 3,    7760.87,  119.3,   0.97407
"SCN_CN15_9016_CEI109", 13.8, 1,     7760.5,   -0.7,   0.97403, 2,     7760.5, -120.7,   0.97403, 3,     7760.5,  119.3,   0.97403
"SCN_CN15_9014_CEI109", 13.8, 1,    7760.48,   -0.7,   0.97402, 2,    7760.48, -120.7,   0.97402, 3,    7760.48,  119.3,   0.97402
"SCN_CN15_9013_CEI109", 13.8, 1,    7760.47,   -0.7,   0.97402, 2,    7760.47, -120.7,   0.97402, 3,    7760.47,  119.3,   0.97402
"SCN_CN15_9012_CEI109", 13.8, 1,    7760.46,   -0.7,   0.97402, 2,    7760.46, -120.7,   0.97402, 3,    7760.46,  119.3,   0.97402
"SCN_CN15_9008_CEI109", 13.8, 1,    7760.45,   -0.7,   0.97402, 2,    7760.45, -120.7,   0.97402, 3,    7760.45,  119.3,   0.97402
"SCN_CN15_9009_CEI109", 13.8, 1,    7760.44,   -0.7,   0.97402, 2,    7760.44, -120.7,   0.97402, 3,    7760.44,  119.3,   0.97402
"SCN_CN15_9010_CEI109", 13.8, 1,    7760.43,   -0.7,   0.97402, 2,    7760.43, -120.7,   0.97402, 3,    7760.43,  119.3,   0.97402
"SCN_CN15_9011_CEI109", 13.8, 1,    7760.43,   -0.7,   0.97402, 2,    7760.43, -120.7,   0.97402, 3,    7760.43,  119.3,   0.97402
"SCN_CN15_9547_CEI109", 13.8, 1,    7760.85,   -0.7,   0.97407, 2,    7760.85, -120.7,   0.97407, 3,    7760.85,  119.3,   0.97407
"SCN_CN15_9007_CEI109", 13.8, 1,    7760.44,   -0.7,   0.97402, 2,    7760.44, -120.7,   0.97402, 3,    7760.44,  119.3,   0.97402
"SCN_CN15_9006_CEI109", 13.8, 1,    7760.44,   -0.7,   0.97402, 2,    7760.44, -120.7,   0.97402, 3,    7760.44,  119.3,   0.97402
"SCN_CN15_9005_CEI109", 13.8, 1,    7760.44,   -0.7,   0.97402, 2,    7760.44, -120.7,   0.97402, 3,    7760.44,  119.3,   0.97402
"SCN_CN15_9004_CEI109", 13.8, 1,    7760.43,   -0.7,   0.97402, 2,    7760.43, -120.7,   0.97402, 3,    7760.43,  119.3,   0.97402
"SCN_CN15_9002_CEI109", 13.8, 1,    7741.88,   -0.7,   0.97169, 2,    7741.88, -120.7,   0.97169, 3,    7741.88,  119.3,   0.97169
"SCN_CN15_9003_CEI109", 13.8, 1,    7741.88,   -0.7,   0.97169, 2,    7741.88, -120.7,   0.97169, 3,    7741.88,  119.3,   0.97169
"SCN_CN15_9001_CEI109", 13.8, 1,    7741.88,   -0.7,   0.97169, 2,    7741.88, -120.7,   0.97169, 3,    7741.88,  119.3,   0.97169
"SCN_CN15_9122_CEI201_ATV", 13.8, 1,    7741.88,   -0.7,   0.97169, 2,    7741.88, -120.7,   0.97169, 3,    7741.88,  119.3,   0.97169
"SCN_CN15_9241_CEI109", 13.8, 1,    7787.95,   -0.7,   0.97747, 2,    7787.95, -120.7,   0.97747, 3,    7787.95,  119.3,   0.97747
"SCN_CN15_9204_CEI109", 13.8, 1,    7787.96,   -0.7,   0.97747, 2,    7787.96, -120.7,   0.97747, 3,    7787.96,  119.3,   0.97747
"SCN_CN15_9242_CEI109", 13.8, 1,    7787.95,   -0.7,   0.97747, 2,    7787.95, -120.7,   0.97747, 3,    7787.95,  119.3,   0.97747
"SCN_CN15_9243_CEI109", 13.8, 1,    7787.95,   -0.7,   0.97747, 2,    7787.95, -120.7,   0.97747, 3,    7787.95,  119.3,   0.97747
"SCN_CN15_9244_CEI109", 13.8, 1,    7787.95,   -0.7,   0.97747, 2,    7787.95, -120.7,   0.97747, 3,    7787.95,  119.3,   0.97747
"SCN_CN15_9245_CEI109", 13.8, 1,    7787.94,   -0.7,   0.97747, 2,    7787.94, -120.7,   0.97747, 3,    7787.94,  119.3,   0.97747
"SCN_CN15_9190_CEI109", 13.8, 1,     7799.4,   -0.8,   0.97891, 2,     7799.4, -120.8,   0.97891, 3,     7799.4,  119.2,   0.97891
"SCN_CN15_9191_CEI109", 13.8, 1,    7799.39,   -0.8,   0.97891, 2,    7799.39, -120.8,   0.97891, 3,    7799.39,  119.2,   0.97891
"SCN_CN15_9166_CEI109", 13.8, 1,    7801.28,   -0.8,   0.97915, 2,    7801.28, -120.8,   0.97915, 3,    7801.28,  119.2,   0.97915
"SCN_CN15_9167_CEI109", 13.8, 1,    7801.28,   -0.8,   0.97915, 2,    7801.28, -120.8,   0.97915, 3,    7801.28,  119.2,   0.97915
"SCN_CN15_9168_CEI109", 13.8, 1,    7801.28,   -0.8,   0.97915, 2,    7801.28, -120.8,   0.97915, 3,    7801.28,  119.2,   0.97915
"SCN_CN15_9169_CEI109", 13.8, 1,    7801.28,   -0.8,   0.97915, 2,    7801.28, -120.8,   0.97915, 3,    7801.28,  119.2,   0.97915
"SCN_CN15_9183_CEI109", 13.8, 1,    7801.27,   -0.8,   0.97915, 2,    7801.27, -120.8,   0.97915, 3,    7801.27,  119.2,   0.97915
"SCN_CN15_9330_CEI109", 13.8, 1,    7758.14,   -0.7,   0.97373, 2,    7758.14, -120.7,   0.97373, 3,    7758.14,  119.3,   0.97373
"SCN_CN15_9329_CEI109", 13.8, 1,    7758.25,   -0.7,   0.97375, 2,    7758.25, -120.7,   0.97375, 3,    7758.25,  119.3,   0.97375
"SCN_CN15_9328_CEI109", 13.8, 1,    7758.36,   -0.7,   0.97376, 2,    7758.36, -120.7,   0.97376, 3,    7758.36,  119.3,   0.97376
"SCN_CN15_9165_CEI068", 13.8, 1,    7737.29,   -0.7,   0.97112, 2,    7737.29, -120.7,   0.97112, 3,    7737.29,  119.3,   0.97112
"SCN_CN15_9166_CEI068", 13.8, 1,    7737.26,   -0.7,   0.97111, 2,    7737.26, -120.7,   0.97111, 3,    7737.26,  119.3,   0.97111
"SCN_CN15_9327_CEI109", 13.8, 1,    7758.47,   -0.7,   0.97377, 2,    7758.47, -120.7,   0.97377, 3,    7758.47,  119.3,   0.97377
"SCN_CN15_9399_CEI109", 13.8, 1,    7758.58,   -0.7,   0.97379, 2,    7758.58, -120.7,   0.97379, 3,    7758.58,  119.3,   0.97379
"SCN_CN15_9029_CEI160_ATV", 13.8, 1,    7758.58,   -0.7,   0.97379, 2,    7758.58, -120.7,   0.97379, 3,    7758.58,  119.3,   0.97379
"SCN_CN15_9057_CEI075", 13.8, 1,    7737.56,   -0.7,   0.97115, 2,    7737.56, -120.7,   0.97115, 3,    7737.56,  119.3,   0.97115
"SCN_CN15_9054_CEIRJ006_ATV", 13.8, 1,    7737.56,   -0.7,   0.97115, 2,    7737.56, -120.7,   0.97115, 3,    7737.56,  119.3,   0.97115
"SCN_CN15_9040_CEI77A_ATV", 13.8, 1,    7699.39,   -0.6,   0.96636, 2,    7699.39, -120.6,   0.96636, 3,    7699.39,  119.4,   0.96636
"SCN_CN15_9042_CEI77A_ATV", 13.8, 1,    7699.39,   -0.6,   0.96636, 2,    7699.39, -120.6,   0.96636, 3,    7699.39,  119.4,   0.96636
"SCN_CN15_9043_CEI77A_ATV", 13.8, 1,    7699.39,   -0.6,   0.96636, 2,    7699.39, -120.6,   0.96636, 3,    7699.39,  119.4,   0.96636
"SCN_CN15_9190_CEI77A_ATV", 13.8, 1,    7699.59,   -0.6,   0.96638, 2,    7699.59, -120.6,   0.96638, 3,    7699.59,  119.4,   0.96638
"SCN_CN15_9194_CEI77A_ATV", 13.8, 1,    7699.58,   -0.6,   0.96638, 2,    7699.58, -120.6,   0.96638, 3,    7699.58,  119.4,   0.96638
"SCN_CN15_9195_CEI77A_ATV", 13.8, 1,    7699.56,   -0.6,   0.96638, 2,    7699.56, -120.6,   0.96638, 3,    7699.56,  119.4,   0.96638
"SCN_CN15_9196_CEI77A_ATV", 13.8, 1,    7699.55,   -0.6,   0.96638, 2,    7699.55, -120.6,   0.96638, 3,    7699.55,  119.4,   0.96638
"SCN_CN15_9197_CEI77A_ATV", 13.8, 1,    7699.54,   -0.6,   0.96638, 2,    7699.54, -120.6,   0.96638, 3,    7699.54,  119.4,   0.96638
"SCN_CN15_9198_CEI77A_ATV", 13.8, 1,    7699.53,   -0.6,   0.96638, 2,    7699.53, -120.6,   0.96638, 3,    7699.53,  119.4,   0.96638
"SCN_CN15_9199_CEI77A_ATV", 13.8, 1,    7699.52,   -0.6,   0.96637, 2,    7699.52, -120.6,   0.96637, 3,    7699.52,  119.4,   0.96637
"SCN_CN15_9200_CEI77A_ATV", 13.8, 1,     7699.7,   -0.6,    0.9664, 2,     7699.7, -120.6,    0.9664, 3,     7699.7,  119.4,    0.9664
"SCN_CN15_9201_CEI77A_ATV", 13.8, 1,    7699.71,   -0.6,    0.9664, 2,    7699.71, -120.6,    0.9664, 3,    7699.71,  119.4,    0.9664
"SCN_CN15_9039_CEI076", 13.8, 1,    7728.52,   -0.7,   0.97001, 2,    7728.52, -120.7,   0.97001, 3,    7728.52,  119.3,   0.97001
"SCN_CN15_9041_CEI076", 13.8, 1,    7728.52,   -0.7,   0.97001, 2,    7728.52, -120.7,   0.97001, 3,    7728.52,  119.3,   0.97001
"SCN_CN15_9042_CEI076", 13.8, 1,    7728.52,   -0.7,   0.97001, 2,    7728.52, -120.7,   0.97001, 3,    7728.52,  119.3,   0.97001
"SCN_CN15_9044_CEI076", 13.8, 1,    7728.52,   -0.7,   0.97001, 2,    7728.52, -120.7,   0.97001, 3,    7728.52,  119.3,   0.97001
"SCN_CN15_9045_CEI076", 13.8, 1,    7728.52,   -0.7,   0.97001, 2,    7728.52, -120.7,   0.97001, 3,    7728.52,  119.3,   0.97001
"SCN_CN15_9057_CEI068", 13.8, 1,    7730.21,   -0.7,   0.97023, 2,    7730.21, -120.7,   0.97023, 3,    7730.21,  119.3,   0.97023
"SCN_CN15_9058_CEI068", 13.8, 1,    7730.21,   -0.7,   0.97023, 2,    7730.21, -120.7,   0.97023, 3,    7730.21,  119.3,   0.97023
"SCN_CN15_9236_CEI068", 13.8, 1,     7730.2,   -0.7,   0.97023, 2,     7730.2, -120.7,   0.97023, 3,     7730.2,  119.3,   0.97023
"SCN_CN15_9240_CEI068", 13.8, 1,     7730.2,   -0.7,   0.97022, 2,     7730.2, -120.7,   0.97022, 3,     7730.2,  119.3,   0.97022
"SCN_CN15_9063_CEI072", 13.8, 1,    7706.75,   -0.6,   0.96728, 2,    7706.75, -120.6,   0.96728, 3,    7706.75,  119.4,   0.96728
"SCN_CN15_CEI_FL_MT_37442", 13.8, 1,    7706.76,   -0.6,   0.96728, 2,    7706.76, -120.6,   0.96728, 3,    7706.76,  119.4,   0.96728
"SCN_CN15_9088_CEI072", 13.8, 1,    7706.76,   -0.6,   0.96728, 2,    7706.76, -120.6,   0.96728, 3,    7706.76,  119.4,   0.96728
"SCN_CN15_9089_CEI072", 13.8, 1,    7706.29,   -0.6,   0.96722, 2,    7706.29, -120.6,   0.96722, 3,    7706.29,  119.4,   0.96722
"SCN_CN15_9062_CEI072", 13.8, 1,    7707.24,   -0.6,   0.96734, 2,    7707.24, -120.6,   0.96734, 3,    7707.24,  119.4,   0.96734
"SCN_CN15_9061_CEI071", 13.8, 1,    7713.73,   -0.6,   0.96816, 2,    7713.73, -120.6,   0.96816, 3,    7713.73,  119.4,   0.96816
"SCN_CN15_9072_CEI071", 13.8, 1,    7713.73,   -0.6,   0.96816, 2,    7713.73, -120.6,   0.96816, 3,    7713.73,  119.4,   0.96816
"SCN_CN15_9073_CEI071", 13.8, 1,    7713.72,   -0.6,   0.96816, 2,    7713.72, -120.6,   0.96816, 3,    7713.72,  119.4,   0.96816
"SCN_CN15_9075_CEI071", 13.8, 1,    7713.72,   -0.6,   0.96816, 2,    7713.72, -120.6,   0.96816, 3,    7713.72,  119.4,   0.96816
"SCN_CN15_9078_CEI071", 13.8, 1,    7713.71,   -0.6,   0.96815, 2,    7713.71, -120.6,   0.96815, 3,    7713.71,  119.4,   0.96815
"SCN_CN15_9079_CEI071", 13.8, 1,     7713.7,   -0.6,   0.96815, 2,     7713.7, -120.6,   0.96815, 3,     7713.7,  119.4,   0.96815
"SCN_CN15_9080_CEI071", 13.8, 1,     7713.7,   -0.6,   0.96815, 2,     7713.7, -120.6,   0.96815, 3,     7713.7,  119.4,   0.96815
"SCN_CN15_9081_CEI071", 13.8, 1,    7713.69,   -0.6,   0.96815, 2,    7713.69, -120.6,   0.96815, 3,    7713.69,  119.4,   0.96815
"SCN_CN15_9082_CEI071", 13.8, 1,    7713.68,   -0.6,   0.96815, 2,    7713.68, -120.6,   0.96815, 3,    7713.68,  119.4,   0.96815
"SCN_CN15_9083_CEI071", 13.8, 1,    7713.68,   -0.6,   0.96815, 2,    7713.68, -120.6,   0.96815, 3,    7713.68,  119.4,   0.96815
"SCN_CN15_9084_CEI071", 13.8, 1,    7713.67,   -0.6,   0.96815, 2,    7713.67, -120.6,   0.96815, 3,    7713.67,  119.4,   0.96815
"SCN_CN15_9145_CEI220_ATV", 13.8, 1,    7757.99,   -0.7,   0.97371, 2,    7757.99, -120.7,   0.97371, 3,    7757.99,  119.3,   0.97371
"SCN_CN15_9146_CEI220_ATV", 13.8, 1,    7757.99,   -0.7,   0.97371, 2,    7757.99, -120.7,   0.97371, 3,    7757.99,  119.3,   0.97371
"SCN_CN15_9004_CEI220_ATV", 13.8, 1,    7741.86,   -0.7,   0.97169, 2,    7741.86, -120.7,   0.97169, 3,    7741.86,  119.3,   0.97169
"SCN_CN15_9005_CEI220_ATV", 13.8, 1,    7741.86,   -0.7,   0.97169, 2,    7741.86, -120.7,   0.97169, 3,    7741.86,  119.3,   0.97169
"SCN_CN15_9088_CEI201_ATV", 13.8, 1,     7743.8,   -0.7,   0.97193, 2,     7743.8, -120.7,   0.97193, 3,     7743.8,  119.3,   0.97193
"SCN_CN15_9089_CEI201_ATV", 13.8, 1,     7743.8,   -0.7,   0.97193, 2,     7743.8, -120.7,   0.97193, 3,     7743.8,  119.3,   0.97193
"SCN_CN15_9016_CEIRJ003", 13.8, 1,    7743.57,   -0.7,    0.9719, 2,    7743.57, -120.7,    0.9719, 3,    7743.57,  119.3,    0.9719
"SCN_CN15_9089_CEI201_ATV_S", 13.8, 1,     7743.8,   -0.7,   0.97193, 2,     7743.8, -120.7,   0.97193, 3,     7743.8,  119.3,   0.97193
"SCN_CN15_9123_CEI69B", 13.8, 1,    7742.66,   -0.7,   0.97179, 2,    7742.66, -120.7,   0.97179, 3,    7742.66,  119.3,   0.97179
"SCN_CN15_9121_CEI69B", 13.8, 1,    7742.46,   -0.7,   0.97176, 2,    7742.46, -120.7,   0.97176, 3,    7742.46,  119.3,   0.97176
"SCN_CN15_9119_CEI69B", 13.8, 1,    7742.25,   -0.7,   0.97174, 2,    7742.25, -120.7,   0.97174, 3,    7742.25,  119.3,   0.97174
"SCN_CN15_9276_CEI109", 13.8, 1,    7765.36,   -0.7,   0.97464, 2,    7765.36, -120.7,   0.97464, 3,    7765.36,  119.3,   0.97464
"SCN_CN15_9277_CEI109", 13.8, 1,    7765.75,   -0.7,   0.97469, 2,    7765.75, -120.7,   0.97469, 3,    7765.75,  119.3,   0.97469
"SCN_CN15_9118_CEI69B", 13.8, 1,    7742.04,   -0.7,   0.97171, 2,    7742.04, -120.7,   0.97171, 3,    7742.04,  119.3,   0.97171
"SCN_CN15_9114_CEI230_ATV", 13.8, 1,    7741.84,   -0.7,   0.97169, 2,    7741.84, -120.7,   0.97169, 3,    7741.84,  119.3,   0.97169
"SCN_CN15_9113_CEI230_ATV", 13.8, 1,    7741.63,   -0.7,   0.97166, 2,    7741.63, -120.7,   0.97166, 3,    7741.63,  119.3,   0.97166
"SCN_CN15_9112_CEI230_ATV", 13.8, 1,    7741.42,   -0.7,   0.97163, 2,    7741.42, -120.7,   0.97163, 3,    7741.42,  119.3,   0.97163
"SCN_CN15_9111_CEI230_ATV_S", 13.8, 1,    7741.22,   -0.7,   0.97161, 2,    7741.22, -120.7,   0.97161, 3,    7741.22,  119.3,   0.97161
"SCN_CN15_9110_CEI230_ATV", 13.8, 1,    7741.21,   -0.7,   0.97161, 2,    7741.21, -120.7,   0.97161, 3,    7741.21,  119.3,   0.97161
"SCN_CN15_9111_CEI230_ATV", 13.8, 1,    7741.22,   -0.7,   0.97161, 2,    7741.22, -120.7,   0.97161, 3,    7741.22,  119.3,   0.97161
"SCN_CN15_9109_CEI230_ATV", 13.8, 1,    7741.21,   -0.7,   0.97161, 2,    7741.21, -120.7,   0.97161, 3,    7741.21,  119.3,   0.97161
"SCN_CN15_9108_CEI230_ATV", 13.8, 1,    7741.21,   -0.7,   0.97161, 2,    7741.21, -120.7,   0.97161, 3,    7741.21,  119.3,   0.97161
"SCN_CN15_9107_CEI230_ATV", 13.8, 1,    7741.21,   -0.7,   0.97161, 2,    7741.21, -120.7,   0.97161, 3,    7741.21,  119.3,   0.97161
"SCN_CN15_9106_CEI230_ATV", 13.8, 1,     7741.2,   -0.7,   0.97161, 2,     7741.2, -120.7,   0.97161, 3,     7741.2,  119.3,   0.97161
"SCN_CN15_9278_CEI109", 13.8, 1,    7766.14,   -0.7,   0.97474, 2,    7766.14, -120.7,   0.97474, 3,    7766.14,  119.3,   0.97474
"SCN_CN15_9104_CEI230_ATV", 13.8, 1,     7741.2,   -0.7,   0.97161, 2,     7741.2, -120.7,   0.97161, 3,     7741.2,  119.3,   0.97161
"SCN_CN15_9105_CEI230_ATV", 13.8, 1,     7741.2,   -0.7,   0.97161, 2,     7741.2, -120.7,   0.97161, 3,     7741.2,  119.3,   0.97161
"SCN_CN15_9103_CEI230_ATV", 13.8, 1,     7741.2,   -0.7,    0.9716, 2,     7741.2, -120.7,    0.9716, 3,     7741.2,  119.3,    0.9716
"SCN_CN15_9102_CEI230_ATV", 13.8, 1,     7741.2,   -0.7,    0.9716, 2,     7741.2, -120.7,    0.9716, 3,     7741.2,  119.3,    0.9716
"SCN_CN15_9100_CEI230_ATV", 13.8, 1,    7741.19,   -0.7,    0.9716, 2,    7741.19, -120.7,    0.9716, 3,    7741.19,  119.3,    0.9716
"SCN_CN15_9099_CEI230_ATV", 13.8, 1,    7741.19,   -0.7,    0.9716, 2,    7741.19, -120.7,    0.9716, 3,    7741.19,  119.3,    0.9716
"SCN_CN15_9098_CEI230_ATV", 13.8, 1,    7741.19,   -0.7,    0.9716, 2,    7741.19, -120.7,    0.9716, 3,    7741.19,  119.3,    0.9716
"SCN_CN15_9097_CEI230_ATV", 13.8, 1,    7741.19,   -0.7,    0.9716, 2,    7741.19, -120.7,    0.9716, 3,    7741.19,  119.3,    0.9716
"SCN_CN15_9096_CEI230_ATV", 13.8, 1,    7741.18,   -0.7,    0.9716, 2,    7741.18, -120.7,    0.9716, 3,    7741.18,  119.3,    0.9716
"SCN_CN15_9094_CEI230_ATV", 13.8, 1,    7741.18,   -0.7,    0.9716, 2,    7741.18, -120.7,    0.9716, 3,    7741.18,  119.3,    0.9716
"SCN_CN15_9281_CEI109", 13.8, 1,    7766.52,   -0.7,   0.97478, 2,    7766.52, -120.7,   0.97478, 3,    7766.52,  119.3,   0.97478
"SCN_CN15_9095_CEI230_ATV", 13.8, 1,    7741.18,   -0.7,    0.9716, 2,    7741.18, -120.7,    0.9716, 3,    7741.18,  119.3,    0.9716
"SCN_CN15_9120_CEI230_ATV", 13.8, 1,    7741.01,   -0.7,   0.97158, 2,    7741.01, -120.7,   0.97158, 3,    7741.01,  119.3,   0.97158
"SCN_CN15_9115_CEI230_ATV", 13.8, 1,    7741.01,   -0.7,   0.97158, 2,    7741.01, -120.7,   0.97158, 3,    7741.01,  119.3,   0.97158
"SCN_CN15_9119_CEI230_ATV", 13.8, 1,    7740.81,   -0.7,   0.97156, 2,    7740.81, -120.7,   0.97156, 3,    7740.81,  119.3,   0.97156
"SCN_CN15_9331_CEI109", 13.8, 1,    7758.04,   -0.7,   0.97372, 2,    7758.04, -120.7,   0.97372, 3,    7758.04,  119.3,   0.97372
"SCN_CN15_9332_CEI109", 13.8, 1,    7757.93,   -0.7,    0.9737, 2,    7757.93, -120.7,    0.9737, 3,    7757.93,  119.3,    0.9737
"SCN_CN15_9118_CEI230_ATV", 13.8, 1,     7740.6,   -0.7,   0.97153, 2,     7740.6, -120.7,   0.97153, 3,     7740.6,  119.3,   0.97153
"SCN_CN15_9117_CEI230_ATV", 13.8, 1,     7740.4,   -0.7,   0.97151, 2,     7740.4, -120.7,   0.97151, 3,     7740.4,  119.3,   0.97151
"SCN_CN15_9116_CEI230_ATV", 13.8, 1,     7740.2,   -0.7,   0.97148, 2,     7740.2, -120.7,   0.97148, 3,     7740.2,  119.3,   0.97148
"SCN_CN15_9014_CEIRJ003", 13.8, 1,       7740,   -0.7,   0.97145, 2,       7740, -120.7,   0.97145, 3,       7740,  119.3,   0.97145
"SCN_CN15_9002_CEI075", 13.8, 1,    7739.79,   -0.7,   0.97143, 2,    7739.79, -120.7,   0.97143, 3,    7739.79,  119.3,   0.97143
"SCN_CN15_9003_CEI075", 13.8, 1,    7739.59,   -0.7,    0.9714, 2,    7739.59, -120.7,    0.9714, 3,    7739.59,  119.3,    0.9714
"SCN_CN15_9282_CEI109", 13.8, 1,    7766.91,   -0.7,   0.97483, 2,    7766.91, -120.7,   0.97483, 3,    7766.91,  119.3,   0.97483
"SCN_CN15_9004_CEI075", 13.8, 1,    7739.39,   -0.7,   0.97138, 2,    7739.39, -120.7,   0.97138, 3,    7739.39,  119.3,   0.97138
"SCN_CN15_9052_CEIRJ006_ATV", 13.8, 1,    7739.59,   -0.7,    0.9714, 2,    7739.59, -120.7,    0.9714, 3,    7739.59,  119.3,    0.9714
"SCN_CN15_9005_CEI075", 13.8, 1,    7739.19,   -0.7,   0.97135, 2,    7739.19, -120.7,   0.97135, 3,    7739.19,  119.3,   0.97135
"SCN_CN15_9006_CEI075", 13.8, 1,    7738.99,   -0.7,   0.97133, 2,    7738.99, -120.7,   0.97133, 3,    7738.99,  119.3,   0.97133
"SCN_CN15_9007_CEI075", 13.8, 1,    7738.79,   -0.7,    0.9713, 2,    7738.79, -120.7,    0.9713, 3,    7738.79,  119.3,    0.9713
"SCN_CN15_9008_CEI075", 13.8, 1,    7738.59,   -0.7,   0.97128, 2,    7738.59, -120.7,   0.97128, 3,    7738.59,  119.3,   0.97128
"SCN_CN15_9009_CEI075", 13.8, 1,    7738.39,   -0.7,   0.97125, 2,    7738.39, -120.7,   0.97125, 3,    7738.39,  119.3,   0.97125
"SCN_CN15_9169_CEI230_ATV", 13.8, 1,    7738.39,   -0.7,   0.97125, 2,    7738.39, -120.7,   0.97125, 3,    7738.39,  119.3,   0.97125
"SCN_CN15_9010_CEI075", 13.8, 1,    7738.35,   -0.7,   0.97125, 2,    7738.35, -120.7,   0.97125, 3,    7738.35,  119.3,   0.97125
"SCN_CN15_9011_CEI075", 13.8, 1,    7738.31,   -0.7,   0.97124, 2,    7738.31, -120.7,   0.97124, 3,    7738.31,  119.3,   0.97124
"SCN_CN15_9012_CEI075", 13.8, 1,    7738.28,   -0.7,   0.97124, 2,    7738.28, -120.7,   0.97124, 3,    7738.28,  119.3,   0.97124
"SCN_CN15_9283_CEI109", 13.8, 1,     7767.3,   -0.7,   0.97488, 2,     7767.3, -120.7,   0.97488, 3,     7767.3,  119.3,   0.97488
"SCN_CN15_9013_CEI075", 13.8, 1,    7738.24,   -0.7,   0.97123, 2,    7738.24, -120.7,   0.97123, 3,    7738.24,  119.3,   0.97123
"SCN_CN15_9014_CEI075", 13.8, 1,     7738.2,   -0.7,   0.97123, 2,     7738.2, -120.7,   0.97123, 3,     7738.2,  119.3,   0.97123
"SCN_CN15_9015_CEI075", 13.8, 1,    7738.16,   -0.7,   0.97122, 2,    7738.16, -120.7,   0.97122, 3,    7738.16,  119.3,   0.97122
"SCN_CN15_9016_CEI075", 13.8, 1,    7738.12,   -0.7,   0.97122, 2,    7738.12, -120.7,   0.97122, 3,    7738.12,  119.3,   0.97122
"SCN_CN15_9017_CEI075", 13.8, 1,    7738.08,   -0.7,   0.97121, 2,    7738.08, -120.7,   0.97121, 3,    7738.08,  119.3,   0.97121
"SCN_CN15_9018_CEI075", 13.8, 1,    7738.04,   -0.7,   0.97121, 2,    7738.04, -120.7,   0.97121, 3,    7738.04,  119.3,   0.97121
"SCN_CN15_9019_CEI075", 13.8, 1,       7738,   -0.7,    0.9712, 2,       7738, -120.7,    0.9712, 3,       7738,  119.3,    0.9712
"SCN_CN15_9020_CEI075", 13.8, 1,    7737.97,   -0.7,    0.9712, 2,    7737.97, -120.7,    0.9712, 3,    7737.97,  119.3,    0.9712
"SCN_CN15_9022_CEI075", 13.8, 1,    7737.93,   -0.7,   0.97119, 2,    7737.93, -120.7,   0.97119, 3,    7737.93,  119.3,   0.97119
"SCN_CN15_9023_CEI075", 13.8, 1,     7737.9,   -0.7,   0.97119, 2,     7737.9, -120.7,   0.97119, 3,     7737.9,  119.3,   0.97119
"SCN_CN15_9284_CEI109", 13.8, 1,    7767.69,   -0.7,   0.97493, 2,    7767.69, -120.7,   0.97493, 3,    7767.69,  119.3,   0.97493
"SCN_CN15_9024_CEI075", 13.8, 1,    7737.86,   -0.7,   0.97119, 2,    7737.86, -120.7,   0.97119, 3,    7737.86,  119.3,   0.97119
"SCN_CN15_9025_CEI075", 13.8, 1,    7737.83,   -0.7,   0.97118, 2,    7737.83, -120.7,   0.97118, 3,    7737.83,  119.3,   0.97118
"SCN_CN15_9072_CEI230_ATV", 13.8, 1,    7737.83,   -0.7,   0.97118, 2,    7737.83, -120.7,   0.97118, 3,    7737.83,  119.3,   0.97118
"SCN_CN15_9028_CEI075", 13.8, 1,    7737.73,   -0.7,   0.97117, 2,    7737.73, -120.7,   0.97117, 3,    7737.73,  119.3,   0.97117
"SCN_CN15_9029_CEI075", 13.8, 1,     7737.7,   -0.7,   0.97117, 2,     7737.7, -120.7,   0.97117, 3,     7737.7,  119.3,   0.97117
"SCN_CN15_9027_CEI075", 13.8, 1,    7737.77,   -0.7,   0.97117, 2,    7737.77, -120.7,   0.97117, 3,    7737.77,  119.3,   0.97117
"SCN_CN15_9026_CEI075", 13.8, 1,     7737.8,   -0.7,   0.97118, 2,     7737.8, -120.7,   0.97118, 3,     7737.8,  119.3,   0.97118
"SCN_CN15_9030_CEI075", 13.8, 1,    7737.68,   -0.7,   0.97116, 2,    7737.68, -120.7,   0.97116, 3,    7737.68,  119.3,   0.97116
"SCN_CN15_9074_CEI230_ATV", 13.8, 1,    7737.67,   -0.7,   0.97116, 2,    7737.67, -120.7,   0.97116, 3,    7737.67,  119.3,   0.97116
"SCN_CN15_9075_CEI230_ATV", 13.8, 1,    7737.65,   -0.7,   0.97116, 2,    7737.65, -120.7,   0.97116, 3,    7737.65,  119.3,   0.97116
"SCN_CN15_9292_CEI109_S", 13.8, 1,    7768.08,   -0.7,   0.97498, 2,    7768.08, -120.7,   0.97498, 3,    7768.08,  119.3,   0.97498
"SCN_CN15_9076_CEI230_ATV_S", 13.8, 1,    7737.64,   -0.7,   0.97116, 2,    7737.64, -120.7,   0.97116, 3,    7737.64,  119.3,   0.97116
"SCN_CN15_9076_CEI230_ATV", 13.8, 1,    7737.64,   -0.7,   0.97116, 2,    7737.64, -120.7,   0.97116, 3,    7737.64,  119.3,   0.97116
"SCN_CN15_9079_CEI230_ATV", 13.8, 1,    7737.63,   -0.7,   0.97116, 2,    7737.63, -120.7,   0.97116, 3,    7737.63,  119.3,   0.97116
"SCN_CN15_9078_CEI230_ATV", 13.8, 1,    7737.62,   -0.7,   0.97116, 2,    7737.62, -120.7,   0.97116, 3,    7737.62,  119.3,   0.97116
"SCN_CN15_9077_CEI230_ATV", 13.8, 1,    7737.63,   -0.7,   0.97116, 2,    7737.63, -120.7,   0.97116, 3,    7737.63,  119.3,   0.97116
"SCN_CN15_9080_CEI230_ATV", 13.8, 1,    7737.62,   -0.7,   0.97116, 2,    7737.62, -120.7,   0.97116, 3,    7737.62,  119.3,   0.97116
"SCN_CN15_9081_CEI230_ATV", 13.8, 1,    7737.62,   -0.7,   0.97116, 2,    7737.62, -120.7,   0.97116, 3,    7737.62,  119.3,   0.97116
"SCN_CN15_9082_CEI230_ATV", 13.8, 1,    7737.62,   -0.7,   0.97116, 2,    7737.62, -120.7,   0.97116, 3,    7737.62,  119.3,   0.97116
"SCN_CN15_9084_CEI230_ATV", 13.8, 1,    7737.61,   -0.7,   0.97116, 2,    7737.61, -120.7,   0.97116, 3,    7737.61,  119.3,   0.97116
"SCN_CN15_9085_CEI230_ATV", 13.8, 1,    7737.61,   -0.7,   0.97115, 2,    7737.61, -120.7,   0.97115, 3,    7737.61,  119.3,   0.97115
"SCN_CN15_9086_CEI230_ATV", 13.8, 1,     7737.6,   -0.7,   0.97115, 2,     7737.6, -120.7,   0.97115, 3,     7737.6,  119.3,   0.97115
"SCN_CN15_9292_CEI109", 13.8, 1,    7768.08,   -0.7,   0.97498, 2,    7768.08, -120.7,   0.97498, 3,    7768.08,  119.3,   0.97498
"SCN_CN15_9423_CEI109", 13.8, 1,    7768.05,   -0.7,   0.97498, 2,    7768.05, -120.7,   0.97498, 3,    7768.05,  119.3,   0.97498
"SCN_CN15_9087_CEI230_ATV", 13.8, 1,     7737.6,   -0.7,   0.97115, 2,     7737.6, -120.7,   0.97115, 3,     7737.6,  119.3,   0.97115
"SCN_CN15_9083_CEI230_ATV", 13.8, 1,    7737.61,   -0.7,   0.97116, 2,    7737.61, -120.7,   0.97116, 3,    7737.61,  119.3,   0.97116
"SCN_CN15_9088_CEI230_ATV", 13.8, 1,    7737.61,   -0.7,   0.97115, 2,    7737.61, -120.7,   0.97115, 3,    7737.61,  119.3,   0.97115
"SCN_CN15_9090_CEI230_ATV", 13.8, 1,    7737.61,   -0.7,   0.97115, 2,    7737.61, -120.7,   0.97115, 3,    7737.61,  119.3,   0.97115
"SCN_CN15_9084_CEI148_ATV", 13.8, 1,    7751.92,   -0.7,   0.97295, 2,    7751.92, -120.7,   0.97295, 3,    7751.92,  119.3,   0.97295
"SCN_CN15_9083_CEI148_ATV", 13.8, 1,       7752,   -0.7,   0.97296, 2,       7752, -120.7,   0.97296, 3,       7752,  119.3,   0.97296
"SCN_CN15_9086_CEI148_ATV", 13.8, 1,    7751.87,   -0.7,   0.97294, 2,    7751.87, -120.7,   0.97294, 3,    7751.87,  119.3,   0.97294
"SCN_CN15_9100_CEI201_ATV", 13.8, 1,    7747.14,   -0.7,   0.97235, 2,    7747.14, -120.7,   0.97235, 3,    7747.14,  119.3,   0.97235
"SCN_CN15_9102_CEI201_ATV", 13.8, 1,    7747.14,   -0.7,   0.97235, 2,    7747.14, -120.7,   0.97235, 3,    7747.14,  119.3,   0.97235
"SCN_CN15_9087_CEI148_ATV", 13.8, 1,    7751.81,   -0.7,   0.97294, 2,    7751.81, -120.7,   0.97294, 3,    7751.81,  119.3,   0.97294
"SCN_CN15_9088_CEI148_ATV", 13.8, 1,     7751.8,   -0.7,   0.97294, 2,     7751.8, -120.7,   0.97294, 3,     7751.8,  119.3,   0.97294
"SCN_CN15_9090_CEI148_ATV", 13.8, 1,    7751.79,   -0.7,   0.97293, 2,    7751.79, -120.7,   0.97293, 3,    7751.79,  119.3,   0.97293
"SCN_CN15_9424_CEI109", 13.8, 1,    7768.03,   -0.7,   0.97497, 2,    7768.03, -120.7,   0.97497, 3,    7768.03,  119.3,   0.97497
"SCN_CN15_9034_CEI148A_ATV", 13.8, 1,    7751.77,   -0.7,   0.97293, 2,    7751.77, -120.7,   0.97293, 3,    7751.77,  119.3,   0.97293
"SCN_CN15_9033_CEI148A_ATV", 13.8, 1,    7751.74,   -0.7,   0.97293, 2,    7751.74, -120.7,   0.97293, 3,    7751.74,  119.3,   0.97293
"SCN_CN15_9035_CEI148A_ATV", 13.8, 1,    7751.74,   -0.7,   0.97293, 2,    7751.74, -120.7,   0.97293, 3,    7751.74,  119.3,   0.97293
"SCN_CN15_9031_CEI148A_ATV", 13.8, 1,     7751.7,   -0.7,   0.97292, 2,     7751.7, -120.7,   0.97292, 3,     7751.7,  119.3,   0.97292
"SCN_CN15_9030_CEI148A_ATV", 13.8, 1,    7751.67,   -0.7,   0.97292, 2,    7751.67, -120.7,   0.97292, 3,    7751.67,  119.3,   0.97292
"SCN_CN15_9029_CEI148A_ATV_S", 13.8, 1,    7751.66,   -0.7,   0.97292, 2,    7751.66, -120.7,   0.97292, 3,    7751.66,  119.3,   0.97292
"SCN_CN15_9028_CEI148A_ATV", 13.8, 1,    7751.66,   -0.7,   0.97292, 2,    7751.66, -120.7,   0.97292, 3,    7751.66,  119.3,   0.97292
"SCN_CN15_9029_CEI148A_ATV", 13.8, 1,    7751.66,   -0.7,   0.97292, 2,    7751.66, -120.7,   0.97292, 3,    7751.66,  119.3,   0.97292
"SCN_CN15_9032_CEI148A_ATV", 13.8, 1,    7751.66,   -0.7,   0.97292, 2,    7751.66, -120.7,   0.97292, 3,    7751.66,  119.3,   0.97292
"SCN_CN15_9078_CEI201_ATV", 13.8, 1,    7751.66,   -0.7,   0.97292, 2,    7751.66, -120.7,   0.97292, 3,    7751.66,  119.3,   0.97292
"SCN_CN15_9075_CEI201_ATV", 13.8, 1,    7751.66,   -0.7,   0.97292, 2,    7751.66, -120.7,   0.97292, 3,    7751.66,  119.3,   0.97292
"SCN_CN15_9425_CEI109", 13.8, 1,    7768.01,   -0.7,   0.97497, 2,    7768.01, -120.7,   0.97497, 3,    7768.01,  119.3,   0.97497
"SCN_CN15_9025_CEI148A_ATV", 13.8, 1,    7751.64,   -0.7,   0.97292, 2,    7751.64, -120.7,   0.97292, 3,    7751.64,  119.3,   0.97292
"SCN_CN15_9023_CEI148A_ATV_S", 13.8, 1,    7751.61,   -0.7,   0.97291, 2,    7751.61, -120.7,   0.97291, 3,    7751.61,  119.3,   0.97291
"SCN_CN15_9028_CEI69A", 13.8, 1,    7751.61,   -0.7,   0.97291, 2,    7751.61, -120.7,   0.97291, 3,    7751.61,  119.3,   0.97291
"SCN_CN15_9023_CEI148A_ATV", 13.8, 1,    7751.61,   -0.7,   0.97291, 2,    7751.61, -120.7,   0.97291, 3,    7751.61,  119.3,   0.97291
"SCN_CN15_9022_CEI148A_ATV", 13.8, 1,    7751.61,   -0.7,   0.97291, 2,    7751.61, -120.7,   0.97291, 3,    7751.61,  119.3,   0.97291
"SCN_CN15_9021_CEI148A_ATV", 13.8, 1,     7751.6,   -0.7,   0.97291, 2,     7751.6, -120.7,   0.97291, 3,     7751.6,  119.3,   0.97291
"SCN_CN15_9020_CEI148A_ATV_S", 13.8, 1,     7751.6,   -0.7,   0.97291, 2,     7751.6, -120.7,   0.97291, 3,     7751.6,  119.3,   0.97291
"SCN_CN15_9020_CEI148A_ATV", 13.8, 1,     7751.6,   -0.7,   0.97291, 2,     7751.6, -120.7,   0.97291, 3,     7751.6,  119.3,   0.97291
"SCN_CN15_9019_CEI148A_ATV", 13.8, 1,    7751.59,   -0.7,   0.97291, 2,    7751.59, -120.7,   0.97291, 3,    7751.59,  119.3,   0.97291
"SCN_CN15_9001_CEI148A_ATV", 13.8, 1,    7751.37,   -0.7,   0.97288, 2,    7751.37, -120.7,   0.97288, 3,    7751.37,  119.3,   0.97288
"SCN_CN15_9002_CEI148A_ATV", 13.8, 1,    7751.37,   -0.7,   0.97288, 2,    7751.37, -120.7,   0.97288, 3,    7751.37,  119.3,   0.97288
"SCN_CN15_9003_CEI148A_ATV", 13.8, 1,    7751.37,   -0.7,   0.97288, 2,    7751.37, -120.7,   0.97288, 3,    7751.37,  119.3,   0.97288
"SCN_CN15_9005_CEI148A_ATV", 13.8, 1,    7751.37,   -0.7,   0.97288, 2,    7751.37, -120.7,   0.97288, 3,    7751.37,  119.3,   0.97288
"SCN_CN15_9426_CEI109", 13.8, 1,    7767.98,   -0.7,   0.97497, 2,    7767.98, -120.7,   0.97497, 3,    7767.98,  119.3,   0.97497
"SCN_CN15_9004_CEI148A_ATV", 13.8, 1,    7751.38,   -0.7,   0.97288, 2,    7751.38, -120.7,   0.97288, 3,    7751.38,  119.3,   0.97288
"SCN_CN15_9143_CEI220_ATV", 13.8, 1,       7758,   -0.7,   0.97371, 2,       7758, -120.7,   0.97371, 3,       7758,  119.3,   0.97371
"SCN_CN15_9144_CEI220_ATV", 13.8, 1,    7757.99,   -0.7,   0.97371, 2,    7757.99, -120.7,   0.97371, 3,    7757.99,  119.3,   0.97371
"SCN_CN15_9006_CEI148A_ATV", 13.8, 1,    7751.39,   -0.7,   0.97288, 2,    7751.39, -120.7,   0.97288, 3,    7751.39,  119.3,   0.97288
"SCN_CN15_9007_CEI148A_ATV", 13.8, 1,    7751.39,   -0.7,   0.97288, 2,    7751.39, -120.7,   0.97288, 3,    7751.39,  119.3,   0.97288
"SCN_CN15_9008_CEI148A_ATV", 13.8, 1,    7751.41,   -0.7,   0.97289, 2,    7751.41, -120.7,   0.97289, 3,    7751.41,  119.3,   0.97289
"SCN_CN15_9010_CEI148A_ATV", 13.8, 1,    7751.43,   -0.7,   0.97289, 2,    7751.43, -120.7,   0.97289, 3,    7751.43,  119.3,   0.97289
"SCN_CN15_9009_CEI148A_ATV", 13.8, 1,    7751.41,   -0.7,   0.97289, 2,    7751.41, -120.7,   0.97289, 3,    7751.41,  119.3,   0.97289
"SCN_CN15_9011_CEI148A_ATV", 13.8, 1,    7751.44,   -0.7,   0.97289, 2,    7751.44, -120.7,   0.97289, 3,    7751.44,  119.3,   0.97289
"SCN_CN15_9012_CEI148A_ATV", 13.8, 1,    7751.46,   -0.7,   0.97289, 2,    7751.46, -120.7,   0.97289, 3,    7751.46,  119.3,   0.97289
"SCN_CN15_9013_CEI148A_ATV", 13.8, 1,    7751.48,   -0.7,    0.9729, 2,    7751.48, -120.7,    0.9729, 3,    7751.48,  119.3,    0.9729
"SCN_CN15_9014_CEI148A_ATV", 13.8, 1,     7751.5,   -0.7,    0.9729, 2,     7751.5, -120.7,    0.9729, 3,     7751.5,  119.3,    0.9729
"SCN_CN15_9015_CEI148A_ATV", 13.8, 1,    7751.51,   -0.7,    0.9729, 2,    7751.51, -120.7,    0.9729, 3,    7751.51,  119.3,    0.9729
"SCN_CN15_9427_CEI109", 13.8, 1,    7767.96,   -0.7,   0.97496, 2,    7767.96, -120.7,   0.97496, 3,    7767.96,  119.3,   0.97496
"SCN_CN15_9016_CEI148A_ATV", 13.8, 1,    7751.53,   -0.7,    0.9729, 2,    7751.53, -120.7,    0.9729, 3,    7751.53,  119.3,    0.9729
"SCN_CN15_9017_CEI148A_ATV", 13.8, 1,    7751.55,   -0.7,    0.9729, 2,    7751.55, -120.7,    0.9729, 3,    7751.55,  119.3,    0.9729
"SCN_CN15_9018_CEI148A_ATV", 13.8, 1,    7751.57,   -0.7,   0.97291, 2,    7751.57, -120.7,   0.97291, 3,    7751.57,  119.3,   0.97291
"SCN_CN15_9020_CEI69A", 13.8, 1,    7751.58,   -0.7,   0.97291, 2,    7751.58, -120.7,   0.97291, 3,    7751.58,  119.3,   0.97291
"SCN_CN15_9018_CEI148A_ATV_S", 13.8, 1,    7751.57,   -0.7,   0.97291, 2,    7751.57, -120.7,   0.97291, 3,    7751.57,  119.3,   0.97291
"SCN_CN15_9019_CEI69A", 13.8, 1,    7751.58,   -0.7,   0.97291, 2,    7751.58, -120.7,   0.97291, 3,    7751.58,  119.3,   0.97291
"SCN_CN15_9018_CEI69A", 13.8, 1,    7751.57,   -0.7,   0.97291, 2,    7751.57, -120.7,   0.97291, 3,    7751.57,  119.3,   0.97291
"SCN_CN15_9017_CEI69A", 13.8, 1,    7751.57,   -0.7,   0.97291, 2,    7751.57, -120.7,   0.97291, 3,    7751.57,  119.3,   0.97291
"SCN_CN15_9016_CEI69A", 13.8, 1,    7751.57,   -0.7,   0.97291, 2,    7751.57, -120.7,   0.97291, 3,    7751.57,  119.3,   0.97291
"SCN_CN15_9015_CEI69A", 13.8, 1,    7751.57,   -0.7,   0.97291, 2,    7751.57, -120.7,   0.97291, 3,    7751.57,  119.3,   0.97291
"SCN_CN15_9428_CEI109", 13.8, 1,    7767.94,   -0.7,   0.97496, 2,    7767.94, -120.7,   0.97496, 3,    7767.94,  119.3,   0.97496
"SCN_CN15_9012_CEI69A_S", 13.8, 1,    7751.57,   -0.7,   0.97291, 2,    7751.57, -120.7,   0.97291, 3,    7751.57,  119.3,   0.97291
"SCN_CN15_9012_CEI69A", 13.8, 1,    7751.57,   -0.7,   0.97291, 2,    7751.57, -120.7,   0.97291, 3,    7751.57,  119.3,   0.97291
"SCN_CN15_9013_CEI69A", 13.8, 1,    7751.56,   -0.7,   0.97291, 2,    7751.56, -120.7,   0.97291, 3,    7751.56,  119.3,   0.97291
"SCN_CN15_9014_CEI69A", 13.8, 1,    7751.56,   -0.7,   0.97291, 2,    7751.56, -120.7,   0.97291, 3,    7751.56,  119.3,   0.97291
"SCN_CN15_9011_CEI69A", 13.8, 1,    7751.57,   -0.7,   0.97291, 2,    7751.57, -120.7,   0.97291, 3,    7751.57,  119.3,   0.97291
"SCN_CN15_9073_CEIRJ006_ATV", 13.8, 1,    7751.79,   -0.7,   0.97293, 2,    7751.79, -120.7,   0.97293, 3,    7751.79,  119.3,   0.97293
"SCN_CN15_9091_CEI148_ATV", 13.8, 1,    7751.78,   -0.7,   0.97293, 2,    7751.78, -120.7,   0.97293, 3,    7751.78,  119.3,   0.97293
"SCN_CN15_9092_CEI148_ATV", 13.8, 1,    7751.78,   -0.7,   0.97293, 2,    7751.78, -120.7,   0.97293, 3,    7751.78,  119.3,   0.97293
"SCN_CN15_9089_CEI148_ATV", 13.8, 1,    7751.78,   -0.7,   0.97293, 2,    7751.78, -120.7,   0.97293, 3,    7751.78,  119.3,   0.97293
"SCN_CN15_9042_CEI69A", 13.8, 1,     7751.8,   -0.7,   0.97294, 2,     7751.8, -120.7,   0.97294, 3,     7751.8,  119.3,   0.97294
"SCN_CN15_9100_CEI072", 13.8, 1,    7704.85,   -0.6,   0.96704, 2,    7704.85, -120.6,   0.96704, 3,    7704.85,  119.4,   0.96704
"SCN_CN15_9101_CEI072", 13.8, 1,    7704.85,   -0.6,   0.96704, 2,    7704.85, -120.6,   0.96704, 3,    7704.85,  119.4,   0.96704
"SCN_CN15_9102_CEI072", 13.8, 1,    7704.84,   -0.6,   0.96704, 2,    7704.84, -120.6,   0.96704, 3,    7704.84,  119.4,   0.96704
"SCN_CN15_9103_CEI072", 13.8, 1,    7704.84,   -0.6,   0.96704, 2,    7704.84, -120.6,   0.96704, 3,    7704.84,  119.4,   0.96704
"SCN_CN15_9104_CEI072", 13.8, 1,    7704.84,   -0.6,   0.96704, 2,    7704.84, -120.6,   0.96704, 3,    7704.84,  119.4,   0.96704
"SCN_CN15_9105_CEI072", 13.8, 1,    7704.83,   -0.6,   0.96704, 2,    7704.83, -120.6,   0.96704, 3,    7704.83,  119.4,   0.96704
"SCN_CN15_9491_CEI109", 13.8, 1,    7758.13,   -0.7,   0.97373, 2,    7758.13, -120.7,   0.97373, 3,    7758.13,  119.3,   0.97373
"SCN_CN15_9492_CEI109", 13.8, 1,    7758.11,   -0.7,   0.97373, 2,    7758.11, -120.7,   0.97373, 3,    7758.11,  119.3,   0.97373
"SCN_CN15_9106_CEI072", 13.8, 1,    7704.83,   -0.6,   0.96704, 2,    7704.83, -120.6,   0.96704, 3,    7704.83,  119.4,   0.96704
"SCN_CN15_9107_CEI072", 13.8, 1,    7704.82,   -0.6,   0.96704, 2,    7704.82, -120.6,   0.96704, 3,    7704.82,  119.4,   0.96704
"SCN_CN15_9108_CEI072", 13.8, 1,    7704.82,   -0.6,   0.96704, 2,    7704.82, -120.6,   0.96704, 3,    7704.82,  119.4,   0.96704
"SCN_CN15_9109_CEI072", 13.8, 1,    7704.81,   -0.6,   0.96704, 2,    7704.81, -120.6,   0.96704, 3,    7704.81,  119.4,   0.96704
"SCN_CN15_9110_CEI072", 13.8, 1,    7704.81,   -0.6,   0.96704, 2,    7704.81, -120.6,   0.96704, 3,    7704.81,  119.4,   0.96704
"SCN_CN15_9111_CEI072", 13.8, 1,    7704.81,   -0.6,   0.96704, 2,    7704.81, -120.6,   0.96704, 3,    7704.81,  119.4,   0.96704
"SCN_CN15_9112_CEI072", 13.8, 1,     7704.8,   -0.6,   0.96704, 2,     7704.8, -120.6,   0.96704, 3,     7704.8,  119.4,   0.96704
"SCN_CN15_9113_CEI072", 13.8, 1,     7704.8,   -0.6,   0.96704, 2,     7704.8, -120.6,   0.96704, 3,     7704.8,  119.4,   0.96704
...
"SCN_CN15_592-0899-22", 13.8, 1,    7744.13,   -0.7,   0.97197, 2,    7744.13, -120.7,   0.97197, 3,    7744.13,  119.3,   0.97197
"SCN_CN15_592-0899-22_S", 13.8, 1,    7744.13,   -0.7,   0.97197, 2,    7744.13, -120.7,   0.97197, 3,    7744.13,  119.3,   0.97197
"SCN_CN15_9013_CEI69B", 13.8, 1,    7742.24,   -0.7,   0.97174, 2,    7742.24, -120.7,   0.97174, 3,    7742.24,  119.3,   0.97174
"SCN_CN15_9015_CEI69B_S", 13.8, 1,    7743.07,   -0.7,   0.97184, 2,    7743.07, -120.7,   0.97184, 3,    7743.07,  119.3,   0.97184
"SCN_CN15_9012_CEI69B", 13.8, 1,    7741.42,   -0.7,   0.97163, 2,    7741.42, -120.7,   0.97163, 3,    7741.42,  119.3,   0.97163
"SCN_CN15_9011_CEI69B", 13.8, 1,    7740.59,   -0.7,   0.97153, 2,    7740.59, -120.7,   0.97153, 3,    7740.59,  119.3,   0.97153
"SCN_CN15_9162_CEI068", 13.8, 1,    7739.77,   -0.7,   0.97143, 2,    7739.77, -120.7,   0.97143, 3,    7739.77,  119.3,   0.97143
"SCN_CN15_9163_CEI068", 13.8, 1,    7738.94,   -0.7,   0.97132, 2,    7738.94, -120.7,   0.97132, 3,    7738.94,  119.3,   0.97132
"SCN_CN15_9164_CEI068", 13.8, 1,    7738.12,   -0.7,   0.97122, 2,    7738.12, -120.7,   0.97122, 3,    7738.12,  119.3,   0.97122
"SCN_CN15_9451_CEI109", 13.8, 1,    7767.77,   -0.7,   0.97494, 2,    7767.77, -120.7,   0.97494, 3,    7767.77,  119.3,   0.97494
"SCN_CN15_9169_CEI068", 13.8, 1,    7736.47,   -0.7,   0.97101, 2,    7736.47, -120.7,   0.97101, 3,    7736.47,  119.3,   0.97101
"SCN_CN15_9170_CEI068", 13.8, 1,     7736.5,   -0.7,   0.97102, 2,     7736.5, -120.7,   0.97102, 3,     7736.5,  119.3,   0.97102
"SCN_CN15_9170_CEI068_S", 13.8, 1,     7736.5,   -0.7,   0.97102, 2,     7736.5, -120.7,   0.97102, 3,     7736.5,  119.3,   0.97102
"SCN_CN15_9171_CEI068", 13.8, 1,    7735.74,   -0.7,   0.97092, 2,    7735.74, -120.7,   0.97092, 3,    7735.74,  119.3,   0.97092
"SCN_CN15_9172_CEI068", 13.8, 1,    7734.98,   -0.7,   0.97082, 2,    7734.98, -120.7,   0.97082, 3,    7734.98,  119.3,   0.97082
"SCN_CN15_9182_CEI068", 13.8, 1,    7734.23,   -0.7,   0.97073, 2,    7734.23, -120.7,   0.97073, 3,    7734.23,  119.3,   0.97073
"SCN_CN15_9181_CEI068", 13.8, 1,    7734.22,   -0.7,   0.97073, 2,    7734.22, -120.7,   0.97073, 3,    7734.22,  119.3,   0.97073
"SCN_CN15_9182_CEI068_S", 13.8, 1,    7734.23,   -0.7,   0.97073, 2,    7734.23, -120.7,   0.97073, 3,    7734.23,  119.3,   0.97073
"SCN_CN15_9183_CEI068", 13.8, 1,    7733.47,   -0.7,   0.97064, 2,    7733.47, -120.7,   0.97064, 3,    7733.47,  119.3,   0.97064
"SCN_CN15_9183_CEI068_S", 13.8, 1,    7733.47,   -0.7,   0.97064, 2,    7733.47, -120.7,   0.97064, 3,    7733.47,  119.3,   0.97064
"SCN_CN15_9186_CEI068", 13.8, 1,    7732.72,   -0.7,   0.97054, 2,    7732.72, -120.7,   0.97054, 3,    7732.72,  119.3,   0.97054
"SCN_CN15_9107_CEI068", 13.8, 1,    7731.99,   -0.7,   0.97045, 2,    7731.99, -120.7,   0.97045, 3,    7731.99,  119.3,   0.97045
"SCN_CN15_9450_CEI109", 13.8, 1,    7767.76,   -0.7,   0.97494, 2,    7767.76, -120.7,   0.97494, 3,    7767.76,  119.3,   0.97494
"SCN_CN15_9103_CEI068", 13.8, 1,    7731.25,   -0.7,   0.97036, 2,    7731.25, -120.7,   0.97036, 3,    7731.25,  119.3,   0.97036
"SCN_CN15_9092_CEI068", 13.8, 1,    7731.21,   -0.7,   0.97035, 2,    7731.21, -120.7,   0.97035, 3,    7731.21,  119.3,   0.97035
"SCN_CN15_9091_CEI068", 13.8, 1,    7731.18,   -0.7,   0.97035, 2,    7731.18, -120.7,   0.97035, 3,    7731.18,  119.3,   0.97035
"SCN_CN15_9090_CEI068", 13.8, 1,    7731.14,   -0.7,   0.97034, 2,    7731.14, -120.7,   0.97034, 3,    7731.14,  119.3,   0.97034
"SCN_CN15_9089_CEI068_S", 13.8, 1,     7731.1,   -0.7,   0.97034, 2,     7731.1, -120.7,   0.97034, 3,     7731.1,  119.3,   0.97034
"SCN_CN15_9086_CEI068", 13.8, 1,    7731.07,   -0.7,   0.97033, 2,    7731.07, -120.7,   0.97033, 3,    7731.07,  119.3,   0.97033
"SCN_CN15_9085_CEI068", 13.8, 1,    7731.03,   -0.7,   0.97033, 2,    7731.03, -120.7,   0.97033, 3,    7731.03,  119.3,   0.97033
"SCN_CN15_9086_CEI068_S", 13.8, 1,    7731.07,   -0.7,   0.97033, 2,    7731.07, -120.7,   0.97033, 3,    7731.07,  119.3,   0.97033
"SCN_CN15_9082_CEI068", 13.8, 1,    7730.99,   -0.7,   0.97032, 2,    7730.99, -120.7,   0.97032, 3,    7730.99,  119.3,   0.97032
"SCN_CN15_9081_CEI068", 13.8, 1,    7730.95,   -0.7,   0.97032, 2,    7730.95, -120.7,   0.97032, 3,    7730.95,  119.3,   0.97032
"SCN_CN15_9080_CEI068", 13.8, 1,    7730.92,   -0.7,   0.97031, 2,    7730.92, -120.7,   0.97031, 3,    7730.92,  119.3,   0.97031
"SCN_CN15_9026_CEI201_ATV", 13.8, 1,    7756.85,   -0.7,   0.97357, 2,    7756.85, -120.7,   0.97357, 3,    7756.85,  119.3,   0.97357
"SCN_CN15_9027_CEI201_ATV", 13.8, 1,    7756.91,   -0.7,   0.97358, 2,    7756.91, -120.7,   0.97358, 3,    7756.91,  119.3,   0.97358
"SCN_CN15_9449_CEI109", 13.8, 1,    7767.75,   -0.7,   0.97494, 2,    7767.75, -120.7,   0.97494, 3,    7767.75,  119.3,   0.97494
"SCN_CN15_9079_CEI068", 13.8, 1,    7730.88,   -0.7,   0.97031, 2,    7730.88, -120.7,   0.97031, 3,    7730.88,  119.3,   0.97031
"SCN_CN15_9078_CEI068", 13.8, 1,    7730.84,   -0.7,   0.97031, 2,    7730.84, -120.7,   0.97031, 3,    7730.84,  119.3,   0.97031
"SCN_CN15_9077_CEI068", 13.8, 1,    7730.81,   -0.7,    0.9703, 2,    7730.81, -120.7,    0.9703, 3,    7730.81,  119.3,    0.9703
"SCN_CN15_9076_CEI068", 13.8, 1,    7730.77,   -0.7,    0.9703, 2,    7730.77, -120.7,    0.9703, 3,    7730.77,  119.3,    0.9703
"SCN_CN15_9075_CEI068", 13.8, 1,    7730.74,   -0.7,   0.97029, 2,    7730.74, -120.7,   0.97029, 3,    7730.74,  119.3,   0.97029
"SCN_CN15_9074_CEI068", 13.8, 1,     7730.7,   -0.7,   0.97029, 2,     7730.7, -120.7,   0.97029, 3,     7730.7,  119.3,   0.97029
"SCN_CN15_9073_CEI068", 13.8, 1,    7730.67,   -0.7,   0.97028, 2,    7730.67, -120.7,   0.97028, 3,    7730.67,  119.3,   0.97028
"SCN_CN15_9072_CEI068", 13.8, 1,    7730.63,   -0.7,   0.97028, 2,    7730.63, -120.7,   0.97028, 3,    7730.63,  119.3,   0.97028
"SCN_CN15_9071_CEI068", 13.8, 1,     7730.6,   -0.7,   0.97027, 2,     7730.6, -120.7,   0.97027, 3,     7730.6,  119.3,   0.97027
"SCN_CN15_9070_CEI068", 13.8, 1,    7730.56,   -0.7,   0.97027, 2,    7730.56, -120.7,   0.97027, 3,    7730.56,  119.3,   0.97027
...